[General]
network = HandoverNetwork
sim-time-limit = 300s
#debug-on-errors = true
#record-eventlog = true

**.constraintAreaMinX = 0m
**.constraintAreaMinY = 0m
**.constraintAreaMinZ = 0m
**.constraintAreaMaxX = 1000m
**.constraintAreaMaxY = 600m
**.constraintAreaMaxZ = 0m

# channel physical parameters
**.mgmt.numChannels = 5

# access point
**.ap1.wlan[*].mac.address = "10:00:00:00:00:00"
**.ap2.wlan[*].mac.address = "20:00:00:00:00:00"
**.ap3.wlan[*].mac.address = "30:00:00:00:00:00"
**.ap1.wlan[*].mgmt.ssid = "AP1"
**.ap2.wlan[*].mgmt.ssid = "AP2"
**.ap3.wlan[*].mgmt.ssid = "AP3"
**.ap*.wlan[*].mgmt.beaconInterval = 100ms
**.wlan[*].mgmt.numAuthSteps = 4

**.mgmt.frameCapacity = 10

# mobility
**.mobility.initFromDisplayString = true
**.host*.mobilityType = "LinearMobility"
**.host*.mobility.speed = 10mps
**.host*.mobility.angle = 0
**.host*.mobility.acceleration = 0
**.host*.mobility.updateInterval = 100ms

# wireless channels
**.ap1.wlan[*].radio.channelNumber = 2
**.ap2.wlan[*].radio.channelNumber = 3
**.ap3.wlan[*].radio.channelNumber = 4
**.host.wlan[*].radio.channelNumber = 0  # just initially -- it'll scan

# wireless configuration
**.wlan*.bitrate = 2Mbps

**.wlan[*].agent.activeScan = true
**.wlan[*].agent.default_ssid = ""
**.wlan[*].agent.channelsToScan = ""  # "" means all
**.wlan[*].agent.probeDelay = 0.1s
**.wlan[*].agent.minChannelTime = 0.15s
**.wlan[*].agent.maxChannelTime = 0.3s
**.wlan[*].agent.authenticationTimeout = 5s
**.wlan[*].agent.associationTimeout = 5s

**.mac.address = "auto"
**.mac.maxQueueSize = 14
**.mac.rtsThresholdBytes = 4000B
**.wlan[*].mac.retryLimit = 7
**.wlan[*].mac.cwMinData = 7
**.wlan[*].mac.cwMinBroadcast = 31

**.radio.transmitter.power = 2.0mW

# Configurator
**.configurator.addDefaultRoutes = false

# State Vectors
**.wlan[*].**.state.vector-recording=false
**.wlan[*].**.receptionState.vector-recording=false
**.wlan[*].**.transmissionState.vector-recording=false
**.wlan[*].**.radioMode.vector-recording=false
[Config Ping]
**.host.numPingApps = 1
**.srv.numPingApps = 1
**.host.pingApp[*].destAddr = "srv"
**.host.pingApp[*].printPing = true

[Config UDP]
**.host.numUdpApps = 1
**.host.udpApp[0].typename = "UDPBasicApp"
**.host.udpApp[0].localPort = 1000
**.host.udpApp[0].destAddresses = "srv"
**.host.udpApp[0].destPort = 1000
**.host.udpApp[0].messageLength = 100B

**.srv.numUdpApps = 1
**.srv.udpApp[0].typename = "UDPEchoApp"
**.srv.udpApp[0].localPort = 1000