[General]
network = Propagation
sim-time-limit = 300s

**.srv.mobilityType = "StationaryMobility"
**.mobility.initFromDisplayString = true

# nic settings
**.wlan[*].bitrate = 2Mbps

**.wlan[*].mgmt.frameCapacity = 10

**.wlan[*].mac.address = "auto"
**.wlan[*].mac.maxQueueSize = 14
**.wlan[*].mac.rtsThresholdBytes = 3000B
**.wlan[*].mac.retryLimit = 7
**.wlan[*].mac.cwMinData = 7
**.wlan[*].mac.cwMinBroadcast = 31

**.wlan[*].radio.transmitter.power = 2mW
**.wlan[*].radio.receiver.sensitivity = -85dBm
**.wlan[*].radio.receiver.snirThreshold = 4dB

# State Vectors
**.wlan[*].**.state.vector-recording=false
**.wlan[*].**.receptionState.vector-recording=false
**.wlan[*].**.transmissionState.vector-recording=false
**.wlan[*].**.radioMode.vector-recording=false

# ping app: Ping the server
*.srv.numPingApps = 1
*.cli[*].numPingApps = 1
*.cli[*].pingApp[*].destAddr = "srv"
**.pingApp[*].printPing = true

[Config MultiStationaryClients]
*.n = ${1,2,5,10,25}
sim-time-limit = 60s
**.wlan[*].radio.transmitter.power = 1mW

**.cli[*].mobilityType = "StationaryMobility"

**.cli[0].mobility.constraintAreaMinX = 450m
**.cli[0].mobility.constraintAreaMinY = 500m
**.cli[0].mobility.constraintAreaMaxX = 450m
**.cli[0].mobility.constraintAreaMaxY = 500m

**.cli[*].mobility.constraintAreaMinX = 400m
**.cli[*].mobility.constraintAreaMinY = 400m
**.cli[*].mobility.constraintAreaMinZ = 0m
**.cli[*].mobility.constraintAreaMaxX = 600m
**.cli[*].mobility.constraintAreaMaxY = 600m
**.cli[*].mobility.constraintAreaMaxZ = 0m

[Config LinearMovement]
*.n = 1
**.cli[*].mobilityType = "LinearMobility"
**.cli[*].mobility.speed = 10mps
**.cli[*].mobility.angle = 0deg
**.cli[*].mobility.acceleration = 0
**.cli[*].mobility.updateInterval = 100ms
**.cli[*].mobility.initialX = 5000m
**.cli[*].mobility.initialY = 500m

**.cli[*].mobility.constraintAreaMinX = 500m
**.cli[*].mobility.constraintAreaMinY = 500m
**.cli[*].mobility.constraintAreaMinZ = 0m
**.cli[*].mobility.constraintAreaMaxX = 1000m
**.cli[*].mobility.constraintAreaMaxY = 500m
**.cli[*].mobility.constraintAreaMaxZ = 0m

[Config Mass]
# mobility
**.cli[*].mobilityType = "MassMobility"
**.cli[*].mobility.initFromDisplayString = false
**.cli[*].mobility.changeInterval = truncnormal(2s, 0.5s)
**.cli[*].mobility.changeAngleBy = normal(0deg, 30deg)
**.cli[*].mobility.speed = truncnormal(20mps, 8mps)
**.cli[*].mobility.updateInterval = 100ms


**.cli[*].mobility.constraintAreaMinX = 0m
**.cli[*].mobility.constraintAreaMinY = 0m
**.cli[*].mobility.constraintAreaMinZ = 0m
**.cli[*].mobility.constraintAreaMaxX = 1000m
**.cli[*].mobility.constraintAreaMaxY = 1000m
**.cli[*].mobility.constraintAreaMaxZ = 0m